*NODE, NSET=Nall
1, 1.600000e+00, 1.600000e+00, 0.000000e+00
2, 1.800000e+00, 1.600000e+00, 0.000000e+00
3, 2.000000e+00, 1.600000e+00, 0.000000e+00
4, 2.200000e+00, 1.600000e+00, 0.000000e+00
5, 2.400000e+00, 1.600000e+00, 0.000000e+00
6, 2.600000e+00, 1.600000e+00, 0.000000e+00
7, 2.800000e+00, 1.600000e+00, 0.000000e+00
8, 3.000000e+00, 1.600000e+00, 0.000000e+00
9, 3.200000e+00, 1.600000e+00, 0.000000e+00
10, 3.400000e+00, 1.600000e+00, 0.000000e+00
11, 3.600000e+00, 1.600000e+00, 0.000000e+00
12, 1.600000e+00, 1.800000e+00, 0.000000e+00
13, 2.000000e+00, 1.800000e+00, 0.000000e+00
14, 2.400000e+00, 1.800000e+00, 0.000000e+00
15, 2.800000e+00, 1.800000e+00, 0.000000e+00
16, 3.200000e+00, 1.800000e+00, 0.000000e+00
17, 3.600000e+00, 1.800000e+00, 0.000000e+00
18, 1.600000e+00, 2.000000e+00, 0.000000e+00
19, 1.800000e+00, 2.000000e+00, 0.000000e+00
20, 2.000000e+00, 2.000000e+00, 0.000000e+00
** ... 1824 like lines cut

*ELEMENT, TYPE=C3D20, ELSET=Eall
1, 265, 267, 308, 306, 1021, 1023, 1064, 1062, 266, 293,
	307, 292, 1022, 1049, 1063, 1048, 825, 826, 840, 839
2, 306, 308, 349, 347, 1062, 1064, 1105, 1103, 307, 334,
	348, 333, 1063, 1090, 1104, 1089, 839, 840, 854, 853
3, 347, 349, 390, 388, 1103, 1105, 1146, 1144, 348, 375,
	389, 374, 1104, 1131, 1145, 1130, 853, 854, 868, 867
4, 388, 390, 431, 429, 1144, 1146, 1187, 1185, 389, 416,
	430, 415, 1145, 1172, 1186, 1171, 867, 868, 882, 881
5, 429, 431, 472, 470, 1185, 1187, 1228, 1226, 430, 457,
	471, 456, 1186, 1213, 1227, 1212, 881, 882, 896, 895
6, 470, 472, 513, 511, 1226, 1228, 1269, 1267, 471, 498,
	512, 497, 1227, 1254, 1268, 1253, 895, 896, 910, 909
7, 511, 513, 554, 552, 1267, 1269, 1310, 1308, 512, 539,
	553, 538, 1268, 1295, 1309, 1294, 909, 910, 924, 923
8, 552, 554, 595, 593, 1308, 1310, 1351, 1349, 553, 580,
	594, 579, 1309, 1336, 1350, 1335, 923, 924, 938, 937
9, 593, 595, 636, 634, 1349, 1351, 1392, 1390, 594, 621,
	635, 620, 1350, 1377, 1391, 1376, 937, 938, 952, 951
10, 634, 636, 677, 675, 1390, 1392, 1433, 1431, 635, 662,
	676, 661, 1391, 1418, 1432, 1417, 951, 952, 966, 965
** ... 518 like lines cut

*NSET, NSET=Nfixed
265, 266, 267, 268, 269, 270, 271, 272, 273, 274,
275, 276, 277, 278, 279, 280, 281, 282, 283, 284,
285, 286, 287, 288, 289, 290, 291, 292, 305, 306,
332, 333, 346, 347, 373, 374, 387, 388, 414, 415,
428, 429, 455, 456, 469, 470, 496, 497, 510, 511,
537, 538, 551, 552, 578, 579, 592, 593, 619, 620,
633, 634, 660, 661, 674, 675, 701, 702, 715, 716,
742, 743, 756, 757, 783, 784, 797, 798, 799, 800,
801, 802, 803, 804, 805, 806, 807, 808, 809, 810,
811, 812, 813, 814, 815, 816, 817, 818, 819, 820,
821, 822, 823, 824, 825, 826, 827, 828, 829, 830,
831, 832, 833, 834, 835, 836, 837, 838, 839, 852,
853, 866, 867, 880, 881, 894, 895, 908, 909, 922,
923, 936, 937, 950, 951, 964, 965, 978, 979, 992,
993, 1006, 1007, 1008, 1009, 1010, 1011, 1012, 1013, 1014,
1015, 1016, 1017, 1018, 1019, 1020, 1021, 1022, 1023, 1024,
1025, 1026, 1027, 1028, 1029, 1030, 1031, 1032, 1033, 1034,
1035, 1036, 1037, 1038, 1039, 1040, 1041, 1042, 1043, 1044,
1045, 1046, 1047, 1048, 1061, 1062, 1088, 1089, 1102, 1103,
1129, 1130, 1143, 1144, 1170, 1171, 1184, 1185, 1211, 1212,
** ... 6 like lines cut

*BOUNDARY
Nfixed, 1
*BOUNDARY
Nfixed, 2
*BOUNDARY
Nfixed, 3
*MATERIAL,NAME=EL
*ELASTIC
170000, 0.28
*DENSITY
2.329e-09
*SOLID SECTION,ELSET=EALL,MATERIAL=EL
*STEP
*FREQUENCY
10
*NODE FILE
U
*EL FILE
S, E
*END STEP