*NODE, NSET=Nall
1, 1.600000e+00, 1.600000e+00, 0.000000e+00
2, 1.800000e+00, 1.600000e+00, 0.000000e+00
3, 2.000000e+00, 1.600000e+00, 0.000000e+00
4, 2.200000e+00, 1.600000e+00, 0.000000e+00
5, 2.400000e+00, 1.600000e+00, 0.000000e+00
6, 2.600000e+00, 1.600000e+00, 0.000000e+00
7, 2.800000e+00, 1.600000e+00, 0.000000e+00
8, 3.000000e+00, 1.600000e+00, 0.000000e+00
9, 3.200000e+00, 1.600000e+00, 0.000000e+00
10, 3.400000e+00, 1.600000e+00, 0.000000e+00
11, 3.600000e+00, 1.600000e+00, 0.000000e+00
12, 1.600000e+00, 1.800000e+00, 0.000000e+00
13, 2.000000e+00, 1.800000e+00, 0.000000e+00
14, 2.400000e+00, 1.800000e+00, 0.000000e+00
15, 2.800000e+00, 1.800000e+00, 0.000000e+00
16, 3.200000e+00, 1.800000e+00, 0.000000e+00
17, 3.600000e+00, 1.800000e+00, 0.000000e+00
18, 1.600000e+00, 2.000000e+00, 0.000000e+00
19, 1.800000e+00, 2.000000e+00, 0.000000e+00
20, 2.000000e+00, 2.000000e+00, 0.000000e+00
** ... 1461 like lines cut

*ELEMENT, TYPE=C3D20, ELSET=Eall
1, 336, 338, 368, 366, 888, 890, 920, 918, 337, 357,
	367, 356, 889, 909, 919, 908, 692, 693, 704, 703
2, 366, 368, 408, 406, 918, 920, 960, 958, 367, 394,
	407, 393, 919, 946, 959, 945, 703, 704, 718, 717
3, 406, 408, 442, 440, 958, 960, 994, 992, 407, 430,
	441, 429, 959, 982, 993, 981, 717, 718, 731, 730
4, 440, 442, 471, 469, 992, 994, 1023, 1021, 441, 460,
	470, 459, 993, 1012, 1022, 1011, 730, 731, 742, 741
5, 469, 471, 504, 502, 1021, 1023, 1056, 1054, 470, 491,
	503, 490, 1022, 1043, 1055, 1042, 741, 742, 754, 753
6, 502, 504, 543, 541, 1054, 1056, 1095, 1093, 503, 528,
	542, 527, 1055, 1080, 1094, 1079, 753, 754, 768, 767
7, 541, 543, 580, 578, 1093, 1095, 1132, 1130, 542, 569,
	579, 568, 1094, 1121, 1131, 1120, 767, 768, 782, 781
8, 338, 340, 370, 368, 890, 892, 922, 920, 339, 358,
	369, 357, 891, 910, 921, 909, 693, 694, 705, 704
9, 368, 370, 410, 408, 920, 922, 962, 960, 369, 395,
	409, 394, 921, 947, 961, 946, 704, 705, 719, 718
10, 408, 410, 444, 442, 960, 962, 996, 994, 409, 431,
	443, 430, 961, 983, 995, 982, 718, 719, 732, 731
** ... 372 like lines cut

*NSET, NSET=Nfixed
265, 266, 267, 268, 269, 270, 271, 272, 273, 274,
275, 276, 277, 278, 279, 336, 355, 356, 365, 366,
392, 393, 405, 406, 428, 429, 439, 440, 458, 459,
468, 469, 489, 490, 501, 502, 526, 527, 540, 541,
567, 568, 577, 578, 599, 651, 652, 653, 654, 655,
656, 657, 658, 659, 660, 661, 662, 663, 664, 665,
666, 667, 668, 669, 670, 671, 672, 673, 692, 702,
703, 716, 717, 729, 730, 740, 741, 752, 753, 766,
767, 780, 781, 792, 809, 810, 811, 812, 813, 814,
815, 816, 817, 818, 819, 820, 821, 822, 823, 824,
825, 826, 827, 828, 829, 830, 831, 888, 907, 908,
917, 918, 944, 945, 957, 958, 980, 981, 991, 992,
1010, 1011, 1020, 1021, 1041, 1042, 1053, 1054, 1078, 1079,
1092, 1093, 1119, 1120, 1129, 1130, 1151, 1203, 1204, 1205,
1206, 1207, 1208, 1209, 1210, 1211, 1212, 1213, 1214, 1215,
1216, 1217

*BOUNDARY
Nfixed, 1
*BOUNDARY
Nfixed, 2
*BOUNDARY
Nfixed, 3
*MATERIAL,NAME=EL
*ELASTIC
170000, 0.28
*DENSITY
2.329e-09
*SOLID SECTION,ELSET=EALL,MATERIAL=EL
*STEP
*FREQUENCY
10
*NODE FILE
U
*EL FILE
S, E
*END STEP